 INFO
nunit      1    1    1
unit   tr_asym
celltype   primcell
shape   parapipedal
 END_INFO
 DIM-GROUP
           3           1
 PRIMVEC
   10.1399999550    0.0000000000    0.0000000000
    0.0000000000    5.8479099740    0.0000000000
    0.0000000000    0.0000000000    7.0944199690
 CONVVEC
   10.1399999550    0.0000000000    0.0000000000
    0.0000000000    5.8479099740    0.0000000000
    0.0000000000    0.0000000000    7.0944199690
 PRIMCOORD
          21           1
  5      5.2177217770    -0.0750251040     0.3579190720
  5      6.9593443780    -0.0012828400    -0.0373504220
  5      8.5788721760     0.0147521240    -0.3341919330
  5      6.1706480130     1.4668442500     0.5248986950
  5      7.7323742120     1.4664775540    -0.1226775780
  5      5.2185611040     3.0108284060     0.3640672030
  5      6.9601486270     2.9370642250    -0.0379876250
  5      8.5770931940     2.9202767220    -0.3327410860
  5      6.0434224040     4.3900252900    -0.0957120440
  5      7.7356313580     4.3897948160    -0.2710289660
  5      0.0522740890     0.0132301810    -0.3360640820
  5      1.6710816250    -0.0027000770    -0.0386346310
  5      3.4133007560    -0.0752459240     0.3575738930
  5      0.8984559080     1.4681095480    -0.1248376140
  5      2.4603498690     1.4685098510     0.5227365270
  5      0.0533061470     2.9188608360    -0.3334791300
  5      1.6706500530     2.9357851420    -0.0397778030
  5      3.4123794220     3.0109736710     0.3628837410
  5      0.8953562390     4.3924606590    -0.2738299250
  5      2.5876727110     4.3929998170    -0.0981322170
 26      4.3150019450     1.4683823560     0.9350624600
 CONVCOORD
          21           1
  5      5.2177217770    -0.0750251040     0.3579190720
  5      6.9593443780    -0.0012828400    -0.0373504220
  5      8.5788721760     0.0147521240    -0.3341919330
  5      6.1706480130     1.4668442500     0.5248986950
  5      7.7323742120     1.4664775540    -0.1226775780
  5      5.2185611040     3.0108284060     0.3640672030
  5      6.9601486270     2.9370642250    -0.0379876250
  5      8.5770931940     2.9202767220    -0.3327410860
  5      6.0434224040     4.3900252900    -0.0957120440
  5      7.7356313580     4.3897948160    -0.2710289660
  5      0.0522740890     0.0132301810    -0.3360640820
  5      1.6710816250    -0.0027000770    -0.0386346310
  5      3.4133007560    -0.0752459240     0.3575738930
  5      0.8984559080     1.4681095480    -0.1248376140
  5      2.4603498690     1.4685098510     0.5227365270
  5      0.0533061470     2.9188608360    -0.3334791300
  5      1.6706500530     2.9357851420    -0.0397778030
  5      3.4123794220     3.0109736710     0.3628837410
  5      0.8953562390     4.3924606590    -0.2738299250
  5      2.5876727110     4.3929998170    -0.0981322170
 26      4.3150019450     1.4683823560     0.9350624600
 RECIP-PRIMVEC
    0.0986193298    0.0000000000    0.0000000000

    0.0000000000    0.1710012645    0.0000000000

    0.0000000000    0.0000000000    0.1409558504

 RECIP-CONVVEC
    0.0986193298    0.0000000000    0.0000000000

    0.0000000000    0.1710012645    0.0000000000

    0.0000000000    0.0000000000    0.1409558504

 WIGNER-SEITZ-PRIMCELL
           4
 -0.5070000E+01 -0.2923955E+01  0.3547210E+01   0.0000000E+00 -0.1000000E+01  0.4938617E-16
 -0.5070000E+01 -0.2923955E+01 -0.3547210E+01   0.0000000E+00 -0.1000000E+01  0.4938617E-16
  0.5070000E+01 -0.2923955E+01 -0.3547210E+01   0.0000000E+00 -0.1000000E+01  0.4938617E-16
  0.5070000E+01 -0.2923955E+01  0.3547210E+01   0.0000000E+00 -0.1000000E+01  0.4938617E-16
           4
 -0.5070000E+01 -0.2923955E+01  0.3547210E+01  -0.0000000E+00 -0.0000000E+00  0.1000000E+01
  0.5070000E+01 -0.2923955E+01  0.3547210E+01  -0.0000000E+00 -0.0000000E+00  0.1000000E+01
  0.5070000E+01  0.2923955E+01  0.3547210E+01  -0.0000000E+00 -0.0000000E+00  0.1000000E+01
 -0.5070000E+01  0.2923955E+01  0.3547210E+01  -0.0000000E+00 -0.0000000E+00  0.1000000E+01
           4
  0.5070000E+01 -0.2923955E+01  0.3547210E+01   0.1000000E+01 -0.1518796E-15  0.1251939E-15
  0.5070000E+01 -0.2923955E+01 -0.3547210E+01   0.1000000E+01 -0.1518796E-15  0.1251939E-15
  0.5070000E+01  0.2923955E+01 -0.3547210E+01   0.1000000E+01 -0.1518796E-15  0.1251939E-15
  0.5070000E+01  0.2923955E+01  0.3547210E+01   0.1000000E+01 -0.1518796E-15  0.1251939E-15
           4
 -0.5070000E+01  0.2923955E+01 -0.3547210E+01  -0.1000000E+01 -0.1518796E-15 -0.1251939E-15
 -0.5070000E+01 -0.2923955E+01 -0.3547210E+01  -0.1000000E+01 -0.1518796E-15 -0.1251939E-15
 -0.5070000E+01 -0.2923955E+01  0.3547210E+01  -0.1000000E+01 -0.1518796E-15 -0.1251939E-15
 -0.5070000E+01  0.2923955E+01  0.3547210E+01  -0.1000000E+01 -0.1518796E-15 -0.1251939E-15
           4
 -0.5070000E+01  0.2923955E+01 -0.3547210E+01  -0.5991307E-16  0.1333902E-15 -0.1000000E+01
  0.5070000E+01  0.2923955E+01 -0.3547210E+01  -0.5991307E-16  0.1333902E-15 -0.1000000E+01
  0.5070000E+01 -0.2923955E+01 -0.3547210E+01  -0.5991307E-16  0.1333902E-15 -0.1000000E+01
 -0.5070000E+01 -0.2923955E+01 -0.3547210E+01  -0.5991307E-16  0.1333902E-15 -0.1000000E+01
           4
  0.5070000E+01  0.2923955E+01  0.3547210E+01  -0.0000000E+00  0.1000000E+01 -0.0000000E+00
  0.5070000E+01  0.2923955E+01 -0.3547210E+01  -0.0000000E+00  0.1000000E+01 -0.0000000E+00
 -0.5070000E+01  0.2923955E+01 -0.3547210E+01  -0.0000000E+00  0.1000000E+01 -0.0000000E+00
 -0.5070000E+01  0.2923955E+01  0.3547210E+01  -0.0000000E+00  0.1000000E+01 -0.0000000E+00
 WIGNER-SEITZ-PRIMCELL_END
 WIGNER-SEITZ-CONVCELL
           4
 -0.5070000E+01 -0.2923955E+01  0.3547210E+01   0.0000000E+00 -0.1000000E+01  0.4938617E-16
 -0.5070000E+01 -0.2923955E+01 -0.3547210E+01   0.0000000E+00 -0.1000000E+01  0.4938617E-16
  0.5070000E+01 -0.2923955E+01 -0.3547210E+01   0.0000000E+00 -0.1000000E+01  0.4938617E-16
  0.5070000E+01 -0.2923955E+01  0.3547210E+01   0.0000000E+00 -0.1000000E+01  0.4938617E-16
           4
 -0.5070000E+01 -0.2923955E+01  0.3547210E+01  -0.0000000E+00 -0.0000000E+00  0.1000000E+01
  0.5070000E+01 -0.2923955E+01  0.3547210E+01  -0.0000000E+00 -0.0000000E+00  0.1000000E+01
  0.5070000E+01  0.2923955E+01  0.3547210E+01  -0.0000000E+00 -0.0000000E+00  0.1000000E+01
 -0.5070000E+01  0.2923955E+01  0.3547210E+01  -0.0000000E+00 -0.0000000E+00  0.1000000E+01
           4
  0.5070000E+01 -0.2923955E+01  0.3547210E+01   0.1000000E+01 -0.1518796E-15  0.1251939E-15
  0.5070000E+01 -0.2923955E+01 -0.3547210E+01   0.1000000E+01 -0.1518796E-15  0.1251939E-15
  0.5070000E+01  0.2923955E+01 -0.3547210E+01   0.1000000E+01 -0.1518796E-15  0.1251939E-15
  0.5070000E+01  0.2923955E+01  0.3547210E+01   0.1000000E+01 -0.1518796E-15  0.1251939E-15
           4
 -0.5070000E+01  0.2923955E+01 -0.3547210E+01  -0.1000000E+01 -0.1518796E-15 -0.1251939E-15
 -0.5070000E+01 -0.2923955E+01 -0.3547210E+01  -0.1000000E+01 -0.1518796E-15 -0.1251939E-15
 -0.5070000E+01 -0.2923955E+01  0.3547210E+01  -0.1000000E+01 -0.1518796E-15 -0.1251939E-15
 -0.5070000E+01  0.2923955E+01  0.3547210E+01  -0.1000000E+01 -0.1518796E-15 -0.1251939E-15
           4
 -0.5070000E+01  0.2923955E+01 -0.3547210E+01  -0.5991307E-16  0.1333902E-15 -0.1000000E+01
  0.5070000E+01  0.2923955E+01 -0.3547210E+01  -0.5991307E-16  0.1333902E-15 -0.1000000E+01
  0.5070000E+01 -0.2923955E+01 -0.3547210E+01  -0.5991307E-16  0.1333902E-15 -0.1000000E+01
 -0.5070000E+01 -0.2923955E+01 -0.3547210E+01  -0.5991307E-16  0.1333902E-15 -0.1000000E+01
           4
  0.5070000E+01  0.2923955E+01  0.3547210E+01  -0.0000000E+00  0.1000000E+01 -0.0000000E+00
  0.5070000E+01  0.2923955E+01 -0.3547210E+01  -0.0000000E+00  0.1000000E+01 -0.0000000E+00
 -0.5070000E+01  0.2923955E+01 -0.3547210E+01  -0.0000000E+00  0.1000000E+01 -0.0000000E+00
 -0.5070000E+01  0.2923955E+01  0.3547210E+01  -0.0000000E+00  0.1000000E+01 -0.0000000E+00
 WIGNER-SEITZ-CONVCELL_END
 BRILLOUIN-ZONE-PRIMCELL
           4
 -0.4930966E-01  0.8550063E-01  0.7047793E-01  -0.1000000E+01  0.0000000E+00  0.0000000E+00
 -0.4930966E-01  0.8550063E-01 -0.7047793E-01  -0.1000000E+01  0.0000000E+00  0.0000000E+00
 -0.4930966E-01 -0.8550063E-01 -0.7047793E-01  -0.1000000E+01  0.0000000E+00  0.0000000E+00
 -0.4930966E-01 -0.8550063E-01  0.7047793E-01  -0.1000000E+01  0.0000000E+00  0.0000000E+00
           4
 -0.4930966E-01 -0.8550063E-01  0.7047793E-01  -0.0000000E+00 -0.1000000E+01  0.1247915E-15
 -0.4930966E-01 -0.8550063E-01 -0.7047793E-01  -0.0000000E+00 -0.1000000E+01  0.1247915E-15
  0.4930966E-01 -0.8550063E-01 -0.7047793E-01  -0.0000000E+00 -0.1000000E+01  0.1247915E-15
  0.4930966E-01 -0.8550063E-01  0.7047793E-01  -0.0000000E+00 -0.1000000E+01  0.1247915E-15
           4
 -0.4930966E-01 -0.8550063E-01 -0.7047793E-01  -0.1477327E-15  0.0000000E+00 -0.1000000E+01
 -0.4930966E-01  0.8550063E-01 -0.7047793E-01  -0.1477327E-15  0.0000000E+00 -0.1000000E+01
  0.4930966E-01  0.8550063E-01 -0.7047793E-01  -0.1477327E-15  0.0000000E+00 -0.1000000E+01
  0.4930966E-01 -0.8550063E-01 -0.7047793E-01  -0.1477327E-15  0.0000000E+00 -0.1000000E+01
           4
 -0.4930966E-01 -0.8550063E-01  0.7047793E-01   0.1028653E-15 -0.1313043E-16  0.1000000E+01
  0.4930966E-01 -0.8550063E-01  0.7047793E-01   0.1028653E-15 -0.1313043E-16  0.1000000E+01
  0.4930966E-01  0.8550063E-01  0.7047793E-01   0.1028653E-15 -0.1313043E-16  0.1000000E+01
 -0.4930966E-01  0.8550063E-01  0.7047793E-01   0.1028653E-15 -0.1313043E-16  0.1000000E+01
           4
  0.4930966E-01  0.8550063E-01  0.7047793E-01   0.2814415E-15  0.1000000E+01  0.1247915E-15
  0.4930966E-01  0.8550063E-01 -0.7047793E-01   0.2814415E-15  0.1000000E+01  0.1247915E-15
 -0.4930966E-01  0.8550063E-01 -0.7047793E-01   0.2814415E-15  0.1000000E+01  0.1247915E-15
 -0.4930966E-01  0.8550063E-01  0.7047793E-01   0.2814415E-15  0.1000000E+01  0.1247915E-15
           4
  0.4930966E-01 -0.8550063E-01 -0.7047793E-01   0.1000000E+01 -0.0000000E+00 -0.0000000E+00
  0.4930966E-01  0.8550063E-01 -0.7047793E-01   0.1000000E+01 -0.0000000E+00 -0.0000000E+00
  0.4930966E-01  0.8550063E-01  0.7047793E-01   0.1000000E+01 -0.0000000E+00 -0.0000000E+00
  0.4930966E-01 -0.8550063E-01  0.7047793E-01   0.1000000E+01 -0.0000000E+00 -0.0000000E+00
 BRILLOUIN-ZONE-PRIMCELL_END
 BRILLOUIN-ZONE-CONVCELL
           4
 -0.4930966E-01  0.8550063E-01  0.7047793E-01  -0.1000000E+01  0.0000000E+00  0.0000000E+00
 -0.4930966E-01  0.8550063E-01 -0.7047793E-01  -0.1000000E+01  0.0000000E+00  0.0000000E+00
 -0.4930966E-01 -0.8550063E-01 -0.7047793E-01  -0.1000000E+01  0.0000000E+00  0.0000000E+00
 -0.4930966E-01 -0.8550063E-01  0.7047793E-01  -0.1000000E+01  0.0000000E+00  0.0000000E+00
           4
 -0.4930966E-01 -0.8550063E-01  0.7047793E-01  -0.0000000E+00 -0.1000000E+01  0.1247915E-15
 -0.4930966E-01 -0.8550063E-01 -0.7047793E-01  -0.0000000E+00 -0.1000000E+01  0.1247915E-15
  0.4930966E-01 -0.8550063E-01 -0.7047793E-01  -0.0000000E+00 -0.1000000E+01  0.1247915E-15
  0.4930966E-01 -0.8550063E-01  0.7047793E-01  -0.0000000E+00 -0.1000000E+01  0.1247915E-15
           4
 -0.4930966E-01 -0.8550063E-01 -0.7047793E-01  -0.1477327E-15  0.0000000E+00 -0.1000000E+01
 -0.4930966E-01  0.8550063E-01 -0.7047793E-01  -0.1477327E-15  0.0000000E+00 -0.1000000E+01
  0.4930966E-01  0.8550063E-01 -0.7047793E-01  -0.1477327E-15  0.0000000E+00 -0.1000000E+01
  0.4930966E-01 -0.8550063E-01 -0.7047793E-01  -0.1477327E-15  0.0000000E+00 -0.1000000E+01
           4
 -0.4930966E-01 -0.8550063E-01  0.7047793E-01   0.1028653E-15 -0.1313043E-16  0.1000000E+01
  0.4930966E-01 -0.8550063E-01  0.7047793E-01   0.1028653E-15 -0.1313043E-16  0.1000000E+01
  0.4930966E-01  0.8550063E-01  0.7047793E-01   0.1028653E-15 -0.1313043E-16  0.1000000E+01
 -0.4930966E-01  0.8550063E-01  0.7047793E-01   0.1028653E-15 -0.1313043E-16  0.1000000E+01
           4
  0.4930966E-01  0.8550063E-01  0.7047793E-01   0.2814415E-15  0.1000000E+01  0.1247915E-15
  0.4930966E-01  0.8550063E-01 -0.7047793E-01   0.2814415E-15  0.1000000E+01  0.1247915E-15
 -0.4930966E-01  0.8550063E-01 -0.7047793E-01   0.2814415E-15  0.1000000E+01  0.1247915E-15
 -0.4930966E-01  0.8550063E-01  0.7047793E-01   0.2814415E-15  0.1000000E+01  0.1247915E-15
           4
  0.4930966E-01 -0.8550063E-01 -0.7047793E-01   0.1000000E+01 -0.0000000E+00 -0.0000000E+00
  0.4930966E-01  0.8550063E-01 -0.7047793E-01   0.1000000E+01 -0.0000000E+00 -0.0000000E+00
  0.4930966E-01  0.8550063E-01  0.7047793E-01   0.1000000E+01 -0.0000000E+00 -0.0000000E+00
  0.4930966E-01 -0.8550063E-01  0.7047793E-01   0.1000000E+01 -0.0000000E+00 -0.0000000E+00
 BRILLOUIN-ZONE-CONVCELL_END
 ATOMS
    5    5.2177217770   -0.0750251040    0.3579190720
    5    6.9593443780   -0.0012828400   -0.0373504220
    5    8.5788721760    0.0147521240   -0.3341919330
    5    6.1706480130    1.4668442500    0.5248986950
    5    7.7323742120    1.4664775540   -0.1226775780
    5    5.2185611040    3.0108284060    0.3640672030
    5    6.9601486270    2.9370642250   -0.0379876250
    5    8.5770931940    2.9202767220   -0.3327410860
    5    6.0434224040    4.3900252900   -0.0957120440
    5    7.7356313580    4.3897948160   -0.2710289660
    5    0.0522740890    0.0132301810   -0.3360640820
    5    1.6710816250   -0.0027000770   -0.0386346310
    5    3.4133007560   -0.0752459240    0.3575738930
    5    0.8984559080    1.4681095480   -0.1248376140
    5    2.4603498690    1.4685098510    0.5227365270
    5    0.0533061470    2.9188608360   -0.3334791300
    5    1.6706500530    2.9357851420   -0.0397778030
    5    3.4123794220    3.0109736710    0.3628837410
    5    0.8953562390    4.3924606590   -0.2738299250
    5    2.5876727110    4.3929998170   -0.0981322170
   26    4.3150019450    1.4683823560    0.9350624600
 FRAMES
1      0.0000000000    0.0000000000    0.0000000000     10.1399999550    0.0000000000    0.0000000000
1      0.0000000000    0.0000000000    0.0000000000      0.0000000000    5.8479099740    0.0000000000
1      0.0000000000    0.0000000000    0.0000000000      0.0000000000    0.0000000000    7.0944199690
1      0.0000000000    0.0000000000    7.0944199690     10.1399999550    0.0000000000    7.0944199690
1      0.0000000000    0.0000000000    7.0944199690      0.0000000000    5.8479099740    7.0944199690
1      0.0000000000    5.8479099740    0.0000000000     10.1399999550    5.8479099740    0.0000000000
1      0.0000000000    5.8479099740    0.0000000000      0.0000000000    5.8479099740    7.0944199690
1      0.0000000000    5.8479099740    7.0944199690     10.1399999550    5.8479099740    7.0944199690
1     10.1399999550    0.0000000000    0.0000000000     10.1399999550    5.8479099740    0.0000000000
1     10.1399999550    0.0000000000    0.0000000000     10.1399999550    0.0000000000    7.0944199690
1     10.1399999550    0.0000000000    7.0944199690     10.1399999550    5.8479099740    7.0944199690
1     10.1399999550    5.8479099740    0.0000000000     10.1399999550    5.8479099740    7.0944199690
