data_image0
_chemical_formula_structural       B64Fe
_chemical_formula_sum              "B64 Fe1"
_cell_length_a       16.6858
_cell_length_b       11.6807
_cell_length_c       8.34289
_cell_angle_alpha    90
_cell_angle_beta     90
_cell_angle_gamma    90

_space_group_name_H-M_alt    "P 1"
_space_group_IT_number       1

loop_
  _space_group_symop_operation_xyz
  'x, y, z'

loop_
  _atom_site_type_symbol
  _atom_site_label
  _atom_site_symmetry_multiplicity
  _atom_site_fract_x
  _atom_site_fract_y
  _atom_site_fract_z
  _atom_site_occupancy
  B   B1        1.0  0.60463  0.75277  0.48781  1.0000
  B   B2        1.0  0.70264  0.75094  0.50312  1.0000
  B   B3        1.0  0.79880  0.74907  0.50002  1.0000
  B   B4        1.0  0.89794  0.74936  0.50175  1.0000
  B   B5        1.0  0.54804  0.87435  0.50207  1.0000
  B   B6        1.0  0.64900  0.87655  0.50134  1.0000
  B   B7        1.0  0.85231  0.87530  0.50112  1.0000
  B   B8        1.0  0.95189  0.87546  0.49898  1.0000
  B   B9        1.0  0.60088  0.00080  0.50535  1.0000
  B   B10       1.0  0.70159  0.00063  0.49247  1.0000
  B   B11       1.0  0.79812  0.99928  0.49819  1.0000
  B   B12       1.0  0.89743  0.99971  0.49878  1.0000
  B   B13       1.0  0.54810  0.12572  0.50194  1.0000
  B   B14       1.0  0.64891  0.12394  0.50233  1.0000
  B   B15       1.0  0.85257  0.12580  0.50326  1.0000
  B   B16       1.0  0.95186  0.12632  0.49754  1.0000
  B   B17       1.0  0.60439  0.24871  0.49619  1.0000
  B   B18       1.0  0.70271  0.25079  0.49785  1.0000
  B   B19       1.0  0.79879  0.24976  0.50387  1.0000
  B   B20       1.0  0.89785  0.24977  0.49881  1.0000
  B   B21       1.0  0.54838  0.37028  0.50192  1.0000
  B   B22       1.0  0.64993  0.37330  0.48663  1.0000
  B   B23       1.0  0.85218  0.37562  0.49931  1.0000
  B   B24       1.0  0.95223  0.37611  0.50115  1.0000
  B   B25       1.0  0.60478  0.50003  0.51347  1.0000
  B   B26       1.0  0.70284  0.49991  0.50139  1.0000
  B   B27       1.0  0.79867  0.49911  0.49827  1.0000
  B   B28       1.0  0.89850  0.49981  0.49901  1.0000
  B   B29       1.0  0.54821  0.63188  0.49357  1.0000
  B   B30       1.0  0.64952  0.62662  0.49503  1.0000
  B   B31       1.0  0.85265  0.62542  0.49785  1.0000
  B   B32       1.0  0.95212  0.62498  0.50330  1.0000
  B   B33       1.0  0.10192  0.74941  0.50176  1.0000
  B   B34       1.0  0.20113  0.74904  0.50004  1.0000
  B   B35       1.0  0.29731  0.75096  0.50320  1.0000
  B   B36       1.0  0.39535  0.75275  0.48749  1.0000
  B   B37       1.0  0.04802  0.87551  0.49891  1.0000
  B   B38       1.0  0.14758  0.87530  0.50112  1.0000
  B   B39       1.0  0.35097  0.87649  0.50172  1.0000
  B   B40       1.0  0.45193  0.87436  0.50187  1.0000
  B   B41       1.0  0.10247  0.99971  0.49893  1.0000
  B   B42       1.0  0.20180  0.99934  0.49837  1.0000
  B   B43       1.0  0.29833  0.00060  0.49284  1.0000
  B   B44       1.0  0.39901  0.00075  0.50503  1.0000
  B   B45       1.0  0.04804  0.12628  0.49756  1.0000
  B   B46       1.0  0.14733  0.12578  0.50314  1.0000
  B   B47       1.0  0.35100  0.12393  0.50265  1.0000
  B   B48       1.0  0.45181  0.12570  0.50172  1.0000
  B   B49       1.0  0.10202  0.24975  0.49881  1.0000
  B   B50       1.0  0.20109  0.24985  0.50376  1.0000
  B   B51       1.0  0.29717  0.25072  0.49771  1.0000
  B   B52       1.0  0.39552  0.24868  0.49591  1.0000
  B   B53       1.0  0.04762  0.37602  0.50123  1.0000
  B   B54       1.0  0.14774  0.37561  0.49933  1.0000
  B   B55       1.0  0.34991  0.37325  0.48610  1.0000
  B   B56       1.0  0.45157  0.37027  0.50107  1.0000
  B   B57       1.0  0.10140  0.49980  0.49926  1.0000
  B   B58       1.0  0.20119  0.49903  0.49833  1.0000
  B   B59       1.0  0.29703  0.49990  0.50106  1.0000
  B   B60       1.0  0.39517  0.49995  0.51093  1.0000
  B   B61       1.0  0.04771  0.62499  0.50340  1.0000
  B   B62       1.0  0.14717  0.62545  0.49776  1.0000
  B   B63       1.0  0.35036  0.62657  0.49483  1.0000
  B   B64       1.0  0.45169  0.63197  0.49270  1.0000
  Fe  Fe1       1.0  0.49984  0.50358  0.61120  1.0000
