data_image0
_chemical_formula_structural       B20
_chemical_formula_sum              "B20"
_cell_length_a       10.14
_cell_length_b       5.84791
_cell_length_c       7.09442
_cell_angle_alpha    90
_cell_angle_beta     90
_cell_angle_gamma    90

_space_group_name_H-M_alt    "P 1"
_space_group_IT_number       1

loop_
  _space_group_symop_operation_xyz
  'x, y, z'

loop_
  _atom_site_type_symbol
  _atom_site_label
  _atom_site_symmetry_multiplicity
  _atom_site_fract_x
  _atom_site_fract_y
  _atom_site_fract_z
  _atom_site_occupancy
  B   B1        1.0  0.50822  0.00420  0.00000  1.0000
  B   B2        1.0  0.67762  0.00420  0.00000  1.0000
  B   B3        1.0  0.84703  0.00420  0.00000  1.0000
  B   B4        1.0  0.59293  0.24964  0.00000  1.0000
  B   B5        1.0  0.76183  0.24964  0.00000  1.0000
  B   B6        1.0  0.50822  0.50015  0.00000  1.0000
  B   B7        1.0  0.67762  0.50015  0.00000  1.0000
  B   B8        1.0  0.84703  0.50015  0.00000  1.0000
  B   B9        1.0  0.59293  0.74559  0.00000  1.0000
  B   B10       1.0  0.76183  0.74559  0.00000  1.0000
  B   B11       1.0  0.00001  0.00420  0.00000  1.0000
  B   B12       1.0  0.16941  0.00420  0.00000  1.0000
  B   B13       1.0  0.33882  0.00420  0.00000  1.0000
  B   B14       1.0  0.08471  0.24964  0.00000  1.0000
  B   B15       1.0  0.25361  0.24964  0.00000  1.0000
  B   B16       1.0  0.00001  0.50015  0.00000  1.0000
  B   B17       1.0  0.16941  0.50015  0.00000  1.0000
  B   B18       1.0  0.33882  0.50015  0.00000  1.0000
  B   B19       1.0  0.08471  0.74559  0.00000  1.0000
  B   B20       1.0  0.25361  0.74559  0.00000  1.0000
