data_image0
_chemical_formula_structural       B30
_chemical_formula_sum              "B30"
_cell_length_a       10.14
_cell_length_b       8.79
_cell_length_c       5
_cell_angle_alpha    90
_cell_angle_beta     90
_cell_angle_gamma    90

_space_group_name_H-M_alt    "P 1"
_space_group_IT_number       1

loop_
  _space_group_symop_operation_xyz
  'x, y, z'

loop_
  _atom_site_type_symbol
  _atom_site_label
  _atom_site_symmetry_multiplicity
  _atom_site_fract_x
  _atom_site_fract_y
  _atom_site_fract_z
  _atom_site_occupancy
  B   B1        1.0  0.00000  0.00000  0.00000  1.0000
  B   B2        1.0  0.16667  0.00000  0.00000  1.0000
  B   B3        1.0  0.33333  0.00000  0.00000  1.0000
  B   B4        1.0  0.08334  0.16496  0.00000  1.0000
  B   B5        1.0  0.24951  0.16496  0.00000  1.0000
  B   B6        1.0  0.00000  0.33333  0.00000  1.0000
  B   B7        1.0  0.16667  0.33333  0.00000  1.0000
  B   B8        1.0  0.33333  0.33333  0.00000  1.0000
  B   B9        1.0  0.08334  0.49829  0.00000  1.0000
  B   B10       1.0  0.24951  0.49829  0.00000  1.0000
  B   B11       1.0  0.00000  0.66667  0.00000  1.0000
  B   B12       1.0  0.16667  0.66667  0.00000  1.0000
  B   B13       1.0  0.33333  0.66667  0.00000  1.0000
  B   B14       1.0  0.08334  0.83163  0.00000  1.0000
  B   B15       1.0  0.24951  0.83163  0.00000  1.0000
  B   B16       1.0  0.50000  0.00000  0.00000  1.0000
  B   B17       1.0  0.66666  0.00000  0.00000  1.0000
  B   B18       1.0  0.83334  0.00000  0.00000  1.0000
  B   B19       1.0  0.58334  0.16496  0.00000  1.0000
  B   B20       1.0  0.74950  0.16496  0.00000  1.0000
  B   B21       1.0  0.50000  0.33333  0.00000  1.0000
  B   B22       1.0  0.66666  0.33333  0.00000  1.0000
  B   B23       1.0  0.83334  0.33333  0.00000  1.0000
  B   B24       1.0  0.58334  0.49829  0.00000  1.0000
  B   B25       1.0  0.74950  0.49829  0.00000  1.0000
  B   B26       1.0  0.50000  0.66667  0.00000  1.0000
  B   B27       1.0  0.66666  0.66667  0.00000  1.0000
  B   B28       1.0  0.83334  0.66667  0.00000  1.0000
  B   B29       1.0  0.58334  0.83163  0.00000  1.0000
  B   B30       1.0  0.74950  0.83163  0.00000  1.0000
