 INFO
nunit      1    1    1
unit   tr_asym
celltype   primcell
shape   parapipedal
 END_INFO
 DIM-GROUP
           3           1
 PRIMVEC
   14.9660696900    0.0000000000    0.0000000000
    0.0000000000   11.8155623600    0.0000000000
    0.0000000000    0.0000000000    5.9864278760
 CONVVEC
   14.9660696900    0.0000000000    0.0000000000
    0.0000000000   11.8155623600    0.0000000000
    0.0000000000    0.0000000000    5.9864278760
 PRIMCOORD
          61           1
  5     -0.0368000690     0.0060911900    -0.3180364640     0.0000000000     0.0000000000     0.0000000000
  5      1.6625253070     0.0005836770    -0.3111835010     0.0000000000     0.0000000000     0.0000000000
  5      3.3623520470     0.0078018120    -0.3134897720     0.0000000000     0.0000000000     0.0000000000
  5      0.8003854070     1.4817920570    -0.4190185230     0.0000000000     0.0000000000     0.0000000000
  5      2.5253446670     1.4826436260    -0.4149178200     0.0000000000     0.0000000000     0.0000000000
  5     -0.0335374660     2.9599907600    -0.5064682610     0.0000000000     0.0000000000     0.0000000000
  5      1.6640877650     2.9537918140    -0.5510836110     0.0000000000     0.0000000000     0.0000000000
  5      3.3619494600     2.9613571620    -0.5006823780     0.0000000000     0.0000000000     0.0000000000
  5      0.7977199500     4.4309294230    -0.6789746630     0.0000000000     0.0000000000     0.0000000000
  5      2.5293436010     4.4309413960    -0.6777085340     0.0000000000     0.0000000000     0.0000000000
  5     -0.0327771890     5.9021689040    -0.5078571120     0.0000000000     0.0000000000     0.0000000000
  5      1.6641431400     5.9088482610    -0.5524290610     0.0000000000     0.0000000000     0.0000000000
  5      3.3612520410     5.9008518900    -0.5021355840     0.0000000000     0.0000000000     0.0000000000
  5      0.8002956110     7.3808031200    -0.4194555320     0.0000000000     0.0000000000     0.0000000000
  5      2.5254868450     7.3799665160    -0.4152874810     0.0000000000     0.0000000000     0.0000000000
  5     -0.0374032010     8.8560729630    -0.3183417720     0.0000000000     0.0000000000     0.0000000000
  5      1.6625432670     8.8614023800    -0.3103034960     0.0000000000     0.0000000000     0.0000000000
  5      3.3629851120     8.8543368990    -0.3135960310     0.0000000000     0.0000000000     0.0000000000
  5      0.8057447570    10.3386327790    -0.3184195950     0.0000000000     0.0000000000     0.0000000000
  5      2.5204687220    10.3386282890    -0.3171235340     0.0000000000     0.0000000000     0.0000000000
  5      4.9929188090     0.0017255880    -0.1855642980     0.0000000000     0.0000000000     0.0000000000
  5      6.6574450800    -0.0159957350     0.0940153530     0.0000000000     0.0000000000     0.0000000000
  5      8.3305124870    -0.0024020540     0.3767169270     0.0000000000     0.0000000000     0.0000000000
  5      5.8214748490     1.4805229340    -0.0573709320     0.0000000000     0.0000000000     0.0000000000
  5      7.4920893170     1.4829085250     0.3803357220     0.0000000000     0.0000000000     0.0000000000
  5      4.9883272190     2.9472217090    -0.2486387990     0.0000000000     0.0000000000     0.0000000000
  5      6.5676905670     2.9399661590     0.2378886710     0.0000000000     0.0000000000     0.0000000000
  5      8.2221970540     2.8884888650     0.8918954400     0.0000000000     0.0000000000     0.0000000000
  5      5.7630562930     4.4309892870     0.0562799050     0.0000000000     0.0000000000     0.0000000000
  5      7.3296012020     4.4311224850     0.8382899720     0.0000000000     0.0000000000     0.0000000000
  5      4.9877061270     5.9148750970    -0.2496220700     0.0000000000     0.0000000000     0.0000000000
  5      6.5669093380     5.9213434320     0.2394167070     0.0000000000     0.0000000000     0.0000000000
  5      8.2236921650     5.9744550200     0.8921049650     0.0000000000     0.0000000000     0.0000000000
  5      5.8215631490     7.3811488360    -0.0564190890     0.0000000000     0.0000000000     0.0000000000
  5      7.4921431950     7.3790700490     0.3808670180     0.0000000000     0.0000000000     0.0000000000
  5      4.9934800370     8.8607124450    -0.1850808940     0.0000000000     0.0000000000     0.0000000000
  5      6.6576067140     8.8782945830     0.0932281380     0.0000000000     0.0000000000     0.0000000000
  5      8.3304571120     8.8650526050     0.3755525660     0.0000000000     0.0000000000     0.0000000000
  5      5.8026205940    10.3391326460    -0.0517990640     0.0000000000     0.0000000000     0.0000000000
  5      7.5120480680    10.3391521020     0.2088395300     0.0000000000     0.0000000000     0.0000000000
  5      9.9622017040    -0.0054596220     0.3777406060     0.0000000000     0.0000000000     0.0000000000
  5     11.6349608100    -0.0158385920     0.0909188730     0.0000000000     0.0000000000     0.0000000000
  5     13.2992551070     0.0008650390    -0.1911122200     0.0000000000     0.0000000000     0.0000000000
  5     10.8033292430     1.4809524600     0.3796487800     0.0000000000     0.0000000000     0.0000000000
  5     12.4728990790     1.4804047020    -0.0634456590     0.0000000000     0.0000000000     0.0000000000
  5     10.0691881500     2.8833734630     0.8905110790     0.0000000000     0.0000000000     0.0000000000
  5     11.7284089490     2.9397042520     0.2375160160     0.0000000000     0.0000000000     0.0000000000
  5     13.3066393660     2.9472052470    -0.2534114780     0.0000000000     0.0000000000     0.0000000000
  5     10.9637565300     4.4311209890     0.8322616390     0.0000000000     0.0000000000     0.0000000000
  5     12.5320015850     4.4310192190     0.0555226220     0.0000000000     0.0000000000     0.0000000000
  5     10.0679399800     5.9795105590     0.8906038680     0.0000000000     0.0000000000     0.0000000000
  5     11.7293084100     5.9217804410     0.2390724870     0.0000000000     0.0000000000     0.0000000000
  5     13.3072709340     5.9149184980    -0.2545653620     0.0000000000     0.0000000000     0.0000000000
  5     10.8031900590     7.3811308770     0.3801097350     0.0000000000     0.0000000000     0.0000000000
  5     12.4728407120     7.3813493810    -0.0625836140     0.0000000000     0.0000000000     0.0000000000
  5      9.9622645620     8.8682164320     0.3765642730     0.0000000000     0.0000000000     0.0000000000
  5     11.6348455710     8.8781838340     0.0903052640     0.0000000000     0.0000000000     0.0000000000
  5     13.2987297980     8.8615834700    -0.1905584750     0.0000000000     0.0000000000     0.0000000000
  5     10.7826431410    10.3391745510     0.2104259330     0.0000000000     0.0000000000     0.0000000000
  5     12.4906144160    10.3391296530    -0.0537551290     0.0000000000     0.0000000000     0.0000000000
 26      9.1493121460     4.4312003090     1.5067853930     0.0000000000     0.0000000000     0.0000000000
 CONVCOORD
          61           1
  5     -0.0368000690     0.0060911900    -0.3180364640
  5      1.6625253070     0.0005836770    -0.3111835010
  5      3.3623520470     0.0078018120    -0.3134897720
  5      0.8003854070     1.4817920570    -0.4190185230
  5      2.5253446670     1.4826436260    -0.4149178200
  5     -0.0335374660     2.9599907600    -0.5064682610
  5      1.6640877650     2.9537918140    -0.5510836110
  5      3.3619494600     2.9613571620    -0.5006823780
  5      0.7977199500     4.4309294230    -0.6789746630
  5      2.5293436010     4.4309413960    -0.6777085340
  5     -0.0327771890     5.9021689040    -0.5078571120
  5      1.6641431400     5.9088482610    -0.5524290610
  5      3.3612520410     5.9008518900    -0.5021355840
  5      0.8002956110     7.3808031200    -0.4194555320
  5      2.5254868450     7.3799665160    -0.4152874810
  5     -0.0374032010     8.8560729630    -0.3183417720
  5      1.6625432670     8.8614023800    -0.3103034960
  5      3.3629851120     8.8543368990    -0.3135960310
  5      0.8057447570    10.3386327790    -0.3184195950
  5      2.5204687220    10.3386282890    -0.3171235340
  5      4.9929188090     0.0017255880    -0.1855642980
  5      6.6574450800    -0.0159957350     0.0940153530
  5      8.3305124870    -0.0024020540     0.3767169270
  5      5.8214748490     1.4805229340    -0.0573709320
  5      7.4920893170     1.4829085250     0.3803357220
  5      4.9883272190     2.9472217090    -0.2486387990
  5      6.5676905670     2.9399661590     0.2378886710
  5      8.2221970540     2.8884888650     0.8918954400
  5      5.7630562930     4.4309892870     0.0562799050
  5      7.3296012020     4.4311224850     0.8382899720
  5      4.9877061270     5.9148750970    -0.2496220700
  5      6.5669093380     5.9213434320     0.2394167070
  5      8.2236921650     5.9744550200     0.8921049650
  5      5.8215631490     7.3811488360    -0.0564190890
  5      7.4921431950     7.3790700490     0.3808670180
  5      4.9934800370     8.8607124450    -0.1850808940
  5      6.6576067140     8.8782945830     0.0932281380
  5      8.3304571120     8.8650526050     0.3755525660
  5      5.8026205940    10.3391326460    -0.0517990640
  5      7.5120480680    10.3391521020     0.2088395300
  5      9.9622017040    -0.0054596220     0.3777406060
  5     11.6349608100    -0.0158385920     0.0909188730
  5     13.2992551070     0.0008650390    -0.1911122200
  5     10.8033292430     1.4809524600     0.3796487800
  5     12.4728990790     1.4804047020    -0.0634456590
  5     10.0691881500     2.8833734630     0.8905110790
  5     11.7284089490     2.9397042520     0.2375160160
  5     13.3066393660     2.9472052470    -0.2534114780
  5     10.9637565300     4.4311209890     0.8322616390
  5     12.5320015850     4.4310192190     0.0555226220
  5     10.0679399800     5.9795105590     0.8906038680
  5     11.7293084100     5.9217804410     0.2390724870
  5     13.3072709340     5.9149184980    -0.2545653620
  5     10.8031900590     7.3811308770     0.3801097350
  5     12.4728407120     7.3813493810    -0.0625836140
  5      9.9622645620     8.8682164320     0.3765642730
  5     11.6348455710     8.8781838340     0.0903052640
  5     13.2987297980     8.8615834700    -0.1905584750
  5     10.7826431410    10.3391745510     0.2104259330
  5     12.4906144160    10.3391296530    -0.0537551290
 26      9.1493121460     4.4312003090     1.5067853930
 RECIP-PRIMVEC
    0.0668178099    0.0000000000    0.0000000000

    0.0000000000    0.0846341435    0.0000000000

    0.0000000000    0.0000000000    0.1670445248

 RECIP-CONVVEC
    0.0668178099    0.0000000000    0.0000000000

    0.0000000000    0.0846341435    0.0000000000

    0.0000000000    0.0000000000    0.1670445248

 WIGNER-SEITZ-PRIMCELL
           4
 -0.7483035E+01 -0.5907781E+01 -0.2993214E+01  -0.3006809E-16 -0.1205450E-15 -0.1000000E+01
 -0.7483035E+01  0.5907781E+01 -0.2993214E+01  -0.3006809E-16 -0.1205450E-15 -0.1000000E+01
  0.7483035E+01  0.5907781E+01 -0.2993214E+01  -0.3006809E-16 -0.1205450E-15 -0.1000000E+01
  0.7483035E+01 -0.5907781E+01 -0.2993214E+01  -0.3006809E-16 -0.1205450E-15 -0.1000000E+01
           4
 -0.7483035E+01 -0.5907781E+01  0.2993214E+01   0.5282946E-31 -0.1000000E+01 -0.1586152E-15
 -0.7483035E+01 -0.5907781E+01 -0.2993214E+01   0.5282946E-31 -0.1000000E+01 -0.1586152E-15
  0.7483035E+01 -0.5907781E+01 -0.2993214E+01   0.5282946E-31 -0.1000000E+01 -0.1586152E-15
  0.7483035E+01 -0.5907781E+01  0.2993214E+01   0.5282946E-31 -0.1000000E+01 -0.1586152E-15
           4
  0.7483035E+01  0.5907781E+01  0.2993214E+01   0.1000000E+01 -0.7517022E-16 -0.1483653E-15
  0.7483035E+01 -0.5907781E+01  0.2993214E+01   0.1000000E+01 -0.7517022E-16 -0.1483653E-15
  0.7483035E+01 -0.5907781E+01 -0.2993214E+01   0.1000000E+01 -0.7517022E-16 -0.1483653E-15
  0.7483035E+01  0.5907781E+01 -0.2993214E+01   0.1000000E+01 -0.7517022E-16 -0.1483653E-15
           4
 -0.7483035E+01  0.5907781E+01 -0.2993214E+01  -0.1000000E+01 -0.7517022E-16 -0.1483653E-15
 -0.7483035E+01 -0.5907781E+01 -0.2993214E+01  -0.1000000E+01 -0.7517022E-16 -0.1483653E-15
 -0.7483035E+01 -0.5907781E+01  0.2993214E+01  -0.1000000E+01 -0.7517022E-16 -0.1483653E-15
 -0.7483035E+01  0.5907781E+01  0.2993214E+01  -0.1000000E+01 -0.7517022E-16 -0.1483653E-15
           4
  0.7483035E+01  0.5907781E+01  0.2993214E+01  -0.1186923E-15  0.1000000E+01 -0.1586152E-15
  0.7483035E+01  0.5907781E+01 -0.2993214E+01  -0.1186923E-15  0.1000000E+01 -0.1586152E-15
 -0.7483035E+01  0.5907781E+01 -0.2993214E+01  -0.1186923E-15  0.1000000E+01 -0.1586152E-15
 -0.7483035E+01  0.5907781E+01  0.2993214E+01  -0.1186923E-15  0.1000000E+01 -0.1586152E-15
           4
 -0.7483035E+01 -0.5907781E+01  0.2993214E+01   0.8036335E-16 -0.9539740E-16  0.1000000E+01
  0.7483035E+01 -0.5907781E+01  0.2993214E+01   0.8036335E-16 -0.9539740E-16  0.1000000E+01
  0.7483035E+01  0.5907781E+01  0.2993214E+01   0.8036335E-16 -0.9539740E-16  0.1000000E+01
 -0.7483035E+01  0.5907781E+01  0.2993214E+01   0.8036335E-16 -0.9539740E-16  0.1000000E+01
 WIGNER-SEITZ-PRIMCELL_END
 WIGNER-SEITZ-CONVCELL
           4
 -0.7483035E+01 -0.5907781E+01 -0.2993214E+01  -0.3006809E-16 -0.1205450E-15 -0.1000000E+01
 -0.7483035E+01  0.5907781E+01 -0.2993214E+01  -0.3006809E-16 -0.1205450E-15 -0.1000000E+01
  0.7483035E+01  0.5907781E+01 -0.2993214E+01  -0.3006809E-16 -0.1205450E-15 -0.1000000E+01
  0.7483035E+01 -0.5907781E+01 -0.2993214E+01  -0.3006809E-16 -0.1205450E-15 -0.1000000E+01
           4
 -0.7483035E+01 -0.5907781E+01  0.2993214E+01   0.5282946E-31 -0.1000000E+01 -0.1586152E-15
 -0.7483035E+01 -0.5907781E+01 -0.2993214E+01   0.5282946E-31 -0.1000000E+01 -0.1586152E-15
  0.7483035E+01 -0.5907781E+01 -0.2993214E+01   0.5282946E-31 -0.1000000E+01 -0.1586152E-15
  0.7483035E+01 -0.5907781E+01  0.2993214E+01   0.5282946E-31 -0.1000000E+01 -0.1586152E-15
           4
  0.7483035E+01  0.5907781E+01  0.2993214E+01   0.1000000E+01 -0.7517022E-16 -0.1483653E-15
  0.7483035E+01 -0.5907781E+01  0.2993214E+01   0.1000000E+01 -0.7517022E-16 -0.1483653E-15
  0.7483035E+01 -0.5907781E+01 -0.2993214E+01   0.1000000E+01 -0.7517022E-16 -0.1483653E-15
  0.7483035E+01  0.5907781E+01 -0.2993214E+01   0.1000000E+01 -0.7517022E-16 -0.1483653E-15
           4
 -0.7483035E+01  0.5907781E+01 -0.2993214E+01  -0.1000000E+01 -0.7517022E-16 -0.1483653E-15
 -0.7483035E+01 -0.5907781E+01 -0.2993214E+01  -0.1000000E+01 -0.7517022E-16 -0.1483653E-15
 -0.7483035E+01 -0.5907781E+01  0.2993214E+01  -0.1000000E+01 -0.7517022E-16 -0.1483653E-15
 -0.7483035E+01  0.5907781E+01  0.2993214E+01  -0.1000000E+01 -0.7517022E-16 -0.1483653E-15
           4
  0.7483035E+01  0.5907781E+01  0.2993214E+01  -0.1186923E-15  0.1000000E+01 -0.1586152E-15
  0.7483035E+01  0.5907781E+01 -0.2993214E+01  -0.1186923E-15  0.1000000E+01 -0.1586152E-15
 -0.7483035E+01  0.5907781E+01 -0.2993214E+01  -0.1186923E-15  0.1000000E+01 -0.1586152E-15
 -0.7483035E+01  0.5907781E+01  0.2993214E+01  -0.1186923E-15  0.1000000E+01 -0.1586152E-15
           4
 -0.7483035E+01 -0.5907781E+01  0.2993214E+01   0.8036335E-16 -0.9539740E-16  0.1000000E+01
  0.7483035E+01 -0.5907781E+01  0.2993214E+01   0.8036335E-16 -0.9539740E-16  0.1000000E+01
  0.7483035E+01  0.5907781E+01  0.2993214E+01   0.8036335E-16 -0.9539740E-16  0.1000000E+01
 -0.7483035E+01  0.5907781E+01  0.2993214E+01   0.8036335E-16 -0.9539740E-16  0.1000000E+01
 WIGNER-SEITZ-CONVCELL_END
 BRILLOUIN-ZONE-PRIMCELL
           4
 -0.3340890E-01 -0.4231707E-01  0.8352226E-01  -0.1000000E+01  0.8198693E-16 -0.4153919E-16
 -0.3340890E-01  0.4231707E-01  0.8352226E-01  -0.1000000E+01  0.8198693E-16 -0.4153919E-16
 -0.3340890E-01  0.4231707E-01 -0.8352226E-01  -0.1000000E+01  0.8198693E-16 -0.4153919E-16
 -0.3340890E-01 -0.4231707E-01 -0.8352226E-01  -0.1000000E+01  0.8198693E-16 -0.4153919E-16
           4
 -0.3340890E-01 -0.4231707E-01  0.8352226E-01  -0.0000000E+00 -0.1000000E+01 -0.0000000E+00
 -0.3340890E-01 -0.4231707E-01 -0.8352226E-01  -0.0000000E+00 -0.1000000E+01 -0.0000000E+00
  0.3340890E-01 -0.4231707E-01 -0.8352226E-01  -0.0000000E+00 -0.1000000E+01 -0.0000000E+00
  0.3340890E-01 -0.4231707E-01  0.8352226E-01  -0.0000000E+00 -0.1000000E+01 -0.0000000E+00
           4
 -0.3340890E-01  0.4231707E-01 -0.8352226E-01   0.1533778E-15 -0.1024837E-15 -0.1000000E+01
  0.3340890E-01  0.4231707E-01 -0.8352226E-01   0.1533778E-15 -0.1024837E-15 -0.1000000E+01
  0.3340890E-01 -0.4231707E-01 -0.8352226E-01   0.1533778E-15 -0.1024837E-15 -0.1000000E+01
 -0.3340890E-01 -0.4231707E-01 -0.8352226E-01   0.1533778E-15 -0.1024837E-15 -0.1000000E+01
           4
 -0.3340890E-01 -0.4231707E-01  0.8352226E-01  -0.0000000E+00 -0.1031791E-15  0.1000000E+01
  0.3340890E-01 -0.4231707E-01  0.8352226E-01  -0.0000000E+00 -0.1031791E-15  0.1000000E+01
  0.3340890E-01  0.4231707E-01  0.8352226E-01  -0.0000000E+00 -0.1031791E-15  0.1000000E+01
 -0.3340890E-01  0.4231707E-01  0.8352226E-01  -0.0000000E+00 -0.1031791E-15  0.1000000E+01
           4
 -0.3340890E-01  0.4231707E-01  0.8352226E-01   0.0000000E+00  0.1000000E+01 -0.1376032E-16
  0.3340890E-01  0.4231707E-01  0.8352226E-01   0.0000000E+00  0.1000000E+01 -0.1376032E-16
  0.3340890E-01  0.4231707E-01 -0.8352226E-01   0.0000000E+00  0.1000000E+01 -0.1376032E-16
 -0.3340890E-01  0.4231707E-01 -0.8352226E-01   0.0000000E+00  0.1000000E+01 -0.1376032E-16
           4
  0.3340890E-01 -0.4231707E-01 -0.8352226E-01   0.1000000E+01  0.8198693E-16 -0.4153919E-16
  0.3340890E-01  0.4231707E-01 -0.8352226E-01   0.1000000E+01  0.8198693E-16 -0.4153919E-16
  0.3340890E-01  0.4231707E-01  0.8352226E-01   0.1000000E+01  0.8198693E-16 -0.4153919E-16
  0.3340890E-01 -0.4231707E-01  0.8352226E-01   0.1000000E+01  0.8198693E-16 -0.4153919E-16
 BRILLOUIN-ZONE-PRIMCELL_END
 BRILLOUIN-ZONE-CONVCELL
           4
 -0.3340890E-01 -0.4231707E-01  0.8352226E-01  -0.1000000E+01  0.8198693E-16 -0.4153919E-16
 -0.3340890E-01  0.4231707E-01  0.8352226E-01  -0.1000000E+01  0.8198693E-16 -0.4153919E-16
 -0.3340890E-01  0.4231707E-01 -0.8352226E-01  -0.1000000E+01  0.8198693E-16 -0.4153919E-16
 -0.3340890E-01 -0.4231707E-01 -0.8352226E-01  -0.1000000E+01  0.8198693E-16 -0.4153919E-16
           4
 -0.3340890E-01 -0.4231707E-01  0.8352226E-01  -0.0000000E+00 -0.1000000E+01 -0.0000000E+00
 -0.3340890E-01 -0.4231707E-01 -0.8352226E-01  -0.0000000E+00 -0.1000000E+01 -0.0000000E+00
  0.3340890E-01 -0.4231707E-01 -0.8352226E-01  -0.0000000E+00 -0.1000000E+01 -0.0000000E+00
  0.3340890E-01 -0.4231707E-01  0.8352226E-01  -0.0000000E+00 -0.1000000E+01 -0.0000000E+00
           4
 -0.3340890E-01  0.4231707E-01 -0.8352226E-01   0.1533778E-15 -0.1024837E-15 -0.1000000E+01
  0.3340890E-01  0.4231707E-01 -0.8352226E-01   0.1533778E-15 -0.1024837E-15 -0.1000000E+01
  0.3340890E-01 -0.4231707E-01 -0.8352226E-01   0.1533778E-15 -0.1024837E-15 -0.1000000E+01
 -0.3340890E-01 -0.4231707E-01 -0.8352226E-01   0.1533778E-15 -0.1024837E-15 -0.1000000E+01
           4
 -0.3340890E-01 -0.4231707E-01  0.8352226E-01  -0.0000000E+00 -0.1031791E-15  0.1000000E+01
  0.3340890E-01 -0.4231707E-01  0.8352226E-01  -0.0000000E+00 -0.1031791E-15  0.1000000E+01
  0.3340890E-01  0.4231707E-01  0.8352226E-01  -0.0000000E+00 -0.1031791E-15  0.1000000E+01
 -0.3340890E-01  0.4231707E-01  0.8352226E-01  -0.0000000E+00 -0.1031791E-15  0.1000000E+01
           4
 -0.3340890E-01  0.4231707E-01  0.8352226E-01   0.0000000E+00  0.1000000E+01 -0.1376032E-16
  0.3340890E-01  0.4231707E-01  0.8352226E-01   0.0000000E+00  0.1000000E+01 -0.1376032E-16
  0.3340890E-01  0.4231707E-01 -0.8352226E-01   0.0000000E+00  0.1000000E+01 -0.1376032E-16
 -0.3340890E-01  0.4231707E-01 -0.8352226E-01   0.0000000E+00  0.1000000E+01 -0.1376032E-16
           4
  0.3340890E-01 -0.4231707E-01 -0.8352226E-01   0.1000000E+01  0.8198693E-16 -0.4153919E-16
  0.3340890E-01  0.4231707E-01 -0.8352226E-01   0.1000000E+01  0.8198693E-16 -0.4153919E-16
  0.3340890E-01  0.4231707E-01  0.8352226E-01   0.1000000E+01  0.8198693E-16 -0.4153919E-16
  0.3340890E-01 -0.4231707E-01  0.8352226E-01   0.1000000E+01  0.8198693E-16 -0.4153919E-16
 BRILLOUIN-ZONE-CONVCELL_END
 ATOMS
    5   -0.0368000690    0.0060911900   -0.3180364640    0.0000000000    0.0000000000    0.0000000000
    5    1.6625253070    0.0005836770   -0.3111835010    0.0000000000    0.0000000000    0.0000000000
    5    3.3623520470    0.0078018120   -0.3134897720    0.0000000000    0.0000000000    0.0000000000
    5    0.8003854070    1.4817920570   -0.4190185230    0.0000000000    0.0000000000    0.0000000000
    5    2.5253446670    1.4826436260   -0.4149178200    0.0000000000    0.0000000000    0.0000000000
    5   -0.0335374660    2.9599907600   -0.5064682610    0.0000000000    0.0000000000    0.0000000000
    5    1.6640877650    2.9537918140   -0.5510836110    0.0000000000    0.0000000000    0.0000000000
    5    3.3619494600    2.9613571620   -0.5006823780    0.0000000000    0.0000000000    0.0000000000
    5    0.7977199500    4.4309294230   -0.6789746630    0.0000000000    0.0000000000    0.0000000000
    5    2.5293436010    4.4309413960   -0.6777085340    0.0000000000    0.0000000000    0.0000000000
    5   -0.0327771890    5.9021689040   -0.5078571120    0.0000000000    0.0000000000    0.0000000000
    5    1.6641431400    5.9088482610   -0.5524290610    0.0000000000    0.0000000000    0.0000000000
    5    3.3612520410    5.9008518900   -0.5021355840    0.0000000000    0.0000000000    0.0000000000
    5    0.8002956110    7.3808031200   -0.4194555320    0.0000000000    0.0000000000    0.0000000000
    5    2.5254868450    7.3799665160   -0.4152874810    0.0000000000    0.0000000000    0.0000000000
    5   -0.0374032010    8.8560729630   -0.3183417720    0.0000000000    0.0000000000    0.0000000000
    5    1.6625432670    8.8614023800   -0.3103034960    0.0000000000    0.0000000000    0.0000000000
    5    3.3629851120    8.8543368990   -0.3135960310    0.0000000000    0.0000000000    0.0000000000
    5    0.8057447570   10.3386327790   -0.3184195950    0.0000000000    0.0000000000    0.0000000000
    5    2.5204687220   10.3386282890   -0.3171235340    0.0000000000    0.0000000000    0.0000000000
    5    4.9929188090    0.0017255880   -0.1855642980    0.0000000000    0.0000000000    0.0000000000
    5    6.6574450800   -0.0159957350    0.0940153530    0.0000000000    0.0000000000    0.0000000000
    5    8.3305124870   -0.0024020540    0.3767169270    0.0000000000    0.0000000000    0.0000000000
    5    5.8214748490    1.4805229340   -0.0573709320    0.0000000000    0.0000000000    0.0000000000
    5    7.4920893170    1.4829085250    0.3803357220    0.0000000000    0.0000000000    0.0000000000
    5    4.9883272190    2.9472217090   -0.2486387990    0.0000000000    0.0000000000    0.0000000000
    5    6.5676905670    2.9399661590    0.2378886710    0.0000000000    0.0000000000    0.0000000000
    5    8.2221970540    2.8884888650    0.8918954400    0.0000000000    0.0000000000    0.0000000000
    5    5.7630562930    4.4309892870    0.0562799050    0.0000000000    0.0000000000    0.0000000000
    5    7.3296012020    4.4311224850    0.8382899720    0.0000000000    0.0000000000    0.0000000000
    5    4.9877061270    5.9148750970   -0.2496220700    0.0000000000    0.0000000000    0.0000000000
    5    6.5669093380    5.9213434320    0.2394167070    0.0000000000    0.0000000000    0.0000000000
    5    8.2236921650    5.9744550200    0.8921049650    0.0000000000    0.0000000000    0.0000000000
    5    5.8215631490    7.3811488360   -0.0564190890    0.0000000000    0.0000000000    0.0000000000
    5    7.4921431950    7.3790700490    0.3808670180    0.0000000000    0.0000000000    0.0000000000
    5    4.9934800370    8.8607124450   -0.1850808940    0.0000000000    0.0000000000    0.0000000000
    5    6.6576067140    8.8782945830    0.0932281380    0.0000000000    0.0000000000    0.0000000000
    5    8.3304571120    8.8650526050    0.3755525660    0.0000000000    0.0000000000    0.0000000000
    5    5.8026205940   10.3391326460   -0.0517990640    0.0000000000    0.0000000000    0.0000000000
    5    7.5120480680   10.3391521020    0.2088395300    0.0000000000    0.0000000000    0.0000000000
    5    9.9622017040   -0.0054596220    0.3777406060    0.0000000000    0.0000000000    0.0000000000
    5   11.6349608100   -0.0158385920    0.0909188730    0.0000000000    0.0000000000    0.0000000000
    5   13.2992551070    0.0008650390   -0.1911122200    0.0000000000    0.0000000000    0.0000000000
    5   10.8033292430    1.4809524600    0.3796487800    0.0000000000    0.0000000000    0.0000000000
    5   12.4728990790    1.4804047020   -0.0634456590    0.0000000000    0.0000000000    0.0000000000
    5   10.0691881500    2.8833734630    0.8905110790    0.0000000000    0.0000000000    0.0000000000
    5   11.7284089490    2.9397042520    0.2375160160    0.0000000000    0.0000000000    0.0000000000
    5   13.3066393660    2.9472052470   -0.2534114780    0.0000000000    0.0000000000    0.0000000000
    5   10.9637565300    4.4311209890    0.8322616390    0.0000000000    0.0000000000    0.0000000000
    5   12.5320015850    4.4310192190    0.0555226220    0.0000000000    0.0000000000    0.0000000000
    5   10.0679399800    5.9795105590    0.8906038680    0.0000000000    0.0000000000    0.0000000000
    5   11.7293084100    5.9217804410    0.2390724870    0.0000000000    0.0000000000    0.0000000000
    5   13.3072709340    5.9149184980   -0.2545653620    0.0000000000    0.0000000000    0.0000000000
    5   10.8031900590    7.3811308770    0.3801097350    0.0000000000    0.0000000000    0.0000000000
    5   12.4728407120    7.3813493810   -0.0625836140    0.0000000000    0.0000000000    0.0000000000
    5    9.9622645620    8.8682164320    0.3765642730    0.0000000000    0.0000000000    0.0000000000
    5   11.6348455710    8.8781838340    0.0903052640    0.0000000000    0.0000000000    0.0000000000
    5   13.2987297980    8.8615834700   -0.1905584750    0.0000000000    0.0000000000    0.0000000000
    5   10.7826431410   10.3391745510    0.2104259330    0.0000000000    0.0000000000    0.0000000000
    5   12.4906144160   10.3391296530   -0.0537551290    0.0000000000    0.0000000000    0.0000000000
   26    9.1493121460    4.4312003090    1.5067853930    0.0000000000    0.0000000000    0.0000000000
 FRAMES
1      0.0000000000    0.0000000000    0.0000000000     14.9660696900    0.0000000000    0.0000000000
1      0.0000000000    0.0000000000    0.0000000000      0.0000000000   11.8155623600    0.0000000000
1      0.0000000000    0.0000000000    0.0000000000      0.0000000000    0.0000000000    5.9864278760
1      0.0000000000    0.0000000000    5.9864278760     14.9660696900    0.0000000000    5.9864278760
1      0.0000000000    0.0000000000    5.9864278760      0.0000000000   11.8155623600    5.9864278760
1      0.0000000000   11.8155623600    0.0000000000     14.9660696900   11.8155623600    0.0000000000
1      0.0000000000   11.8155623600    0.0000000000      0.0000000000   11.8155623600    5.9864278760
1      0.0000000000   11.8155623600    5.9864278760     14.9660696900   11.8155623600    5.9864278760
1     14.9660696900    0.0000000000    0.0000000000     14.9660696900   11.8155623600    0.0000000000
1     14.9660696900    0.0000000000    0.0000000000     14.9660696900    0.0000000000    5.9864278760
1     14.9660696900    0.0000000000    5.9864278760     14.9660696900   11.8155623600    5.9864278760
1     14.9660696900   11.8155623600    0.0000000000     14.9660696900   11.8155623600    5.9864278760
