 INFO
nunit      1    1    1
unit   cell
celltype   primcell
shape   parapipedal
 END_INFO
 DIM-GROUP
           3           1
 PRIMVEC
    8.3428914520    0.0000000000    0.0000000000
    0.0000000000    2.9201788660    0.0000000000
    0.0000000000    0.0000000000    8.3428914520
 CONVVEC
    8.3428914520    0.0000000000    0.0000000000
    0.0000000000    2.9201788660    0.0000000000
    0.0000000000    0.0000000000    8.3428914520
 PRIMCOORD
           8           1
  5      1.6685782900     0.0000000000     4.1714457260
  5      3.3371565810     0.0000000000     4.1714457260
  5      5.0057348710     0.0000000000     4.1714457260
  5      6.6743131610     0.0000000000     4.1714457260
  5      0.8342891450     1.4600894330     4.1714457260
  5      2.5028674350     1.4600894330     4.1714457260
  5      5.8400240160     1.4600894330     4.1714457260
  5      7.5086023070     1.4600894330     4.1714457260
 CONVCOORD
           8           1
  5      1.6685782900     0.0000000000     4.1714457260
  5      3.3371565810     0.0000000000     4.1714457260
  5      5.0057348710     0.0000000000     4.1714457260
  5      6.6743131610     0.0000000000     4.1714457260
  5      0.8342891450     1.4600894330     4.1714457260
  5      2.5028674350     1.4600894330     4.1714457260
  5      5.8400240160     1.4600894330     4.1714457260
  5      7.5086023070     1.4600894330     4.1714457260
 RECIP-PRIMVEC
    0.1198625208    0.0000000000    0.0000000000

    0.0000000000    0.3424447768    0.0000000000

    0.0000000000    0.0000000000    0.1198625208

 RECIP-CONVVEC
    0.1198625208    0.0000000000    0.0000000000

    0.0000000000    0.3424447768    0.0000000000

    0.0000000000    0.0000000000    0.1198625208

 WIGNER-SEITZ-PRIMCELL
           4
  0.4171446E+01 -0.1460089E+01  0.4171446E+01   0.0000000E+00 -0.1000000E+01  0.0000000E+00
 -0.4171446E+01 -0.1460089E+01  0.4171446E+01   0.0000000E+00 -0.1000000E+01  0.0000000E+00
 -0.4171446E+01 -0.1460089E+01 -0.4171446E+01   0.0000000E+00 -0.1000000E+01  0.0000000E+00
  0.4171446E+01 -0.1460089E+01 -0.4171446E+01   0.0000000E+00 -0.1000000E+01  0.0000000E+00
           4
  0.4171446E+01 -0.1460089E+01  0.4171446E+01   0.1000000E+01 -0.0000000E+00 -0.0000000E+00
  0.4171446E+01 -0.1460089E+01 -0.4171446E+01   0.1000000E+01 -0.0000000E+00 -0.0000000E+00
  0.4171446E+01  0.1460089E+01 -0.4171446E+01   0.1000000E+01 -0.0000000E+00 -0.0000000E+00
  0.4171446E+01  0.1460089E+01  0.4171446E+01   0.1000000E+01 -0.0000000E+00 -0.0000000E+00
           4
 -0.4171446E+01  0.1460089E+01 -0.4171446E+01   0.0000000E+00  0.0000000E+00 -0.1000000E+01
  0.4171446E+01  0.1460089E+01 -0.4171446E+01   0.0000000E+00  0.0000000E+00 -0.1000000E+01
  0.4171446E+01 -0.1460089E+01 -0.4171446E+01   0.0000000E+00  0.0000000E+00 -0.1000000E+01
 -0.4171446E+01 -0.1460089E+01 -0.4171446E+01   0.0000000E+00  0.0000000E+00 -0.1000000E+01
           4
  0.4171446E+01 -0.1460089E+01  0.4171446E+01  -0.0000000E+00  0.2916515E-15  0.1000000E+01
  0.4171446E+01  0.1460089E+01  0.4171446E+01  -0.0000000E+00  0.2916515E-15  0.1000000E+01
 -0.4171446E+01  0.1460089E+01  0.4171446E+01  -0.0000000E+00  0.2916515E-15  0.1000000E+01
 -0.4171446E+01 -0.1460089E+01  0.4171446E+01  -0.0000000E+00  0.2916515E-15  0.1000000E+01
           4
 -0.4171446E+01 -0.1460089E+01  0.4171446E+01  -0.1000000E+01  0.0000000E+00  0.0000000E+00
 -0.4171446E+01  0.1460089E+01  0.4171446E+01  -0.1000000E+01  0.0000000E+00  0.0000000E+00
 -0.4171446E+01  0.1460089E+01 -0.4171446E+01  -0.1000000E+01  0.0000000E+00  0.0000000E+00
 -0.4171446E+01 -0.1460089E+01 -0.4171446E+01  -0.1000000E+01  0.0000000E+00  0.0000000E+00
           4
  0.4171446E+01  0.1460089E+01 -0.4171446E+01  -0.0000000E+00  0.1000000E+01 -0.0000000E+00
 -0.4171446E+01  0.1460089E+01 -0.4171446E+01  -0.0000000E+00  0.1000000E+01 -0.0000000E+00
 -0.4171446E+01  0.1460089E+01  0.4171446E+01  -0.0000000E+00  0.1000000E+01 -0.0000000E+00
  0.4171446E+01  0.1460089E+01  0.4171446E+01  -0.0000000E+00  0.1000000E+01 -0.0000000E+00
 WIGNER-SEITZ-PRIMCELL_END
 WIGNER-SEITZ-CONVCELL
           4
  0.4171446E+01 -0.1460089E+01  0.4171446E+01   0.0000000E+00 -0.1000000E+01  0.0000000E+00
 -0.4171446E+01 -0.1460089E+01  0.4171446E+01   0.0000000E+00 -0.1000000E+01  0.0000000E+00
 -0.4171446E+01 -0.1460089E+01 -0.4171446E+01   0.0000000E+00 -0.1000000E+01  0.0000000E+00
  0.4171446E+01 -0.1460089E+01 -0.4171446E+01   0.0000000E+00 -0.1000000E+01  0.0000000E+00
           4
  0.4171446E+01 -0.1460089E+01  0.4171446E+01   0.1000000E+01 -0.0000000E+00 -0.0000000E+00
  0.4171446E+01 -0.1460089E+01 -0.4171446E+01   0.1000000E+01 -0.0000000E+00 -0.0000000E+00
  0.4171446E+01  0.1460089E+01 -0.4171446E+01   0.1000000E+01 -0.0000000E+00 -0.0000000E+00
  0.4171446E+01  0.1460089E+01  0.4171446E+01   0.1000000E+01 -0.0000000E+00 -0.0000000E+00
           4
 -0.4171446E+01  0.1460089E+01 -0.4171446E+01   0.0000000E+00  0.0000000E+00 -0.1000000E+01
  0.4171446E+01  0.1460089E+01 -0.4171446E+01   0.0000000E+00  0.0000000E+00 -0.1000000E+01
  0.4171446E+01 -0.1460089E+01 -0.4171446E+01   0.0000000E+00  0.0000000E+00 -0.1000000E+01
 -0.4171446E+01 -0.1460089E+01 -0.4171446E+01   0.0000000E+00  0.0000000E+00 -0.1000000E+01
           4
  0.4171446E+01 -0.1460089E+01  0.4171446E+01  -0.0000000E+00  0.2916515E-15  0.1000000E+01
  0.4171446E+01  0.1460089E+01  0.4171446E+01  -0.0000000E+00  0.2916515E-15  0.1000000E+01
 -0.4171446E+01  0.1460089E+01  0.4171446E+01  -0.0000000E+00  0.2916515E-15  0.1000000E+01
 -0.4171446E+01 -0.1460089E+01  0.4171446E+01  -0.0000000E+00  0.2916515E-15  0.1000000E+01
           4
 -0.4171446E+01 -0.1460089E+01  0.4171446E+01  -0.1000000E+01  0.0000000E+00  0.0000000E+00
 -0.4171446E+01  0.1460089E+01  0.4171446E+01  -0.1000000E+01  0.0000000E+00  0.0000000E+00
 -0.4171446E+01  0.1460089E+01 -0.4171446E+01  -0.1000000E+01  0.0000000E+00  0.0000000E+00
 -0.4171446E+01 -0.1460089E+01 -0.4171446E+01  -0.1000000E+01  0.0000000E+00  0.0000000E+00
           4
  0.4171446E+01  0.1460089E+01 -0.4171446E+01  -0.0000000E+00  0.1000000E+01 -0.0000000E+00
 -0.4171446E+01  0.1460089E+01 -0.4171446E+01  -0.0000000E+00  0.1000000E+01 -0.0000000E+00
 -0.4171446E+01  0.1460089E+01  0.4171446E+01  -0.0000000E+00  0.1000000E+01 -0.0000000E+00
  0.4171446E+01  0.1460089E+01  0.4171446E+01  -0.0000000E+00  0.1000000E+01 -0.0000000E+00
 WIGNER-SEITZ-CONVCELL_END
 BRILLOUIN-ZONE-PRIMCELL
           4
 -0.5993126E-01 -0.1712224E+00  0.5993126E-01  -0.1000000E+01  0.0000000E+00  0.0000000E+00
 -0.5993126E-01  0.1712224E+00  0.5993126E-01  -0.1000000E+01  0.0000000E+00  0.0000000E+00
 -0.5993126E-01  0.1712224E+00 -0.5993126E-01  -0.1000000E+01  0.0000000E+00  0.0000000E+00
 -0.5993126E-01 -0.1712224E+00 -0.5993126E-01  -0.1000000E+01  0.0000000E+00  0.0000000E+00
           4
 -0.5993126E-01 -0.1712224E+00 -0.5993126E-01  -0.0000000E+00 -0.1000000E+01 -0.0000000E+00
  0.5993126E-01 -0.1712224E+00 -0.5993126E-01  -0.0000000E+00 -0.1000000E+01 -0.0000000E+00
  0.5993126E-01 -0.1712224E+00  0.5993126E-01  -0.0000000E+00 -0.1000000E+01 -0.0000000E+00
 -0.5993126E-01 -0.1712224E+00  0.5993126E-01  -0.0000000E+00 -0.1000000E+01 -0.0000000E+00
           4
 -0.5993126E-01  0.1712224E+00 -0.5993126E-01   0.0000000E+00  0.0000000E+00 -0.1000000E+01
  0.5993126E-01  0.1712224E+00 -0.5993126E-01   0.0000000E+00  0.0000000E+00 -0.1000000E+01
  0.5993126E-01 -0.1712224E+00 -0.5993126E-01   0.0000000E+00  0.0000000E+00 -0.1000000E+01
 -0.5993126E-01 -0.1712224E+00 -0.5993126E-01   0.0000000E+00  0.0000000E+00 -0.1000000E+01
           4
  0.5993126E-01 -0.1712224E+00  0.5993126E-01   0.3473972E-17 -0.0000000E+00  0.1000000E+01
  0.5993126E-01  0.1712224E+00  0.5993126E-01   0.3473972E-17 -0.0000000E+00  0.1000000E+01
 -0.5993126E-01  0.1712224E+00  0.5993126E-01   0.3473972E-17 -0.0000000E+00  0.1000000E+01
 -0.5993126E-01 -0.1712224E+00  0.5993126E-01   0.3473972E-17 -0.0000000E+00  0.1000000E+01
           4
 -0.5993126E-01  0.1712224E+00  0.5993126E-01   0.0000000E+00  0.1000000E+01  0.0000000E+00
  0.5993126E-01  0.1712224E+00  0.5993126E-01   0.0000000E+00  0.1000000E+01  0.0000000E+00
  0.5993126E-01  0.1712224E+00 -0.5993126E-01   0.0000000E+00  0.1000000E+01  0.0000000E+00
 -0.5993126E-01  0.1712224E+00 -0.5993126E-01   0.0000000E+00  0.1000000E+01  0.0000000E+00
           4
  0.5993126E-01 -0.1712224E+00  0.5993126E-01   0.1000000E+01 -0.0000000E+00 -0.0000000E+00
  0.5993126E-01 -0.1712224E+00 -0.5993126E-01   0.1000000E+01 -0.0000000E+00 -0.0000000E+00
  0.5993126E-01  0.1712224E+00 -0.5993126E-01   0.1000000E+01 -0.0000000E+00 -0.0000000E+00
  0.5993126E-01  0.1712224E+00  0.5993126E-01   0.1000000E+01 -0.0000000E+00 -0.0000000E+00
 BRILLOUIN-ZONE-PRIMCELL_END
 BRILLOUIN-ZONE-CONVCELL
           4
 -0.5993126E-01 -0.1712224E+00  0.5993126E-01  -0.1000000E+01  0.0000000E+00  0.0000000E+00
 -0.5993126E-01  0.1712224E+00  0.5993126E-01  -0.1000000E+01  0.0000000E+00  0.0000000E+00
 -0.5993126E-01  0.1712224E+00 -0.5993126E-01  -0.1000000E+01  0.0000000E+00  0.0000000E+00
 -0.5993126E-01 -0.1712224E+00 -0.5993126E-01  -0.1000000E+01  0.0000000E+00  0.0000000E+00
           4
 -0.5993126E-01 -0.1712224E+00 -0.5993126E-01  -0.0000000E+00 -0.1000000E+01 -0.0000000E+00
  0.5993126E-01 -0.1712224E+00 -0.5993126E-01  -0.0000000E+00 -0.1000000E+01 -0.0000000E+00
  0.5993126E-01 -0.1712224E+00  0.5993126E-01  -0.0000000E+00 -0.1000000E+01 -0.0000000E+00
 -0.5993126E-01 -0.1712224E+00  0.5993126E-01  -0.0000000E+00 -0.1000000E+01 -0.0000000E+00
           4
 -0.5993126E-01  0.1712224E+00 -0.5993126E-01   0.0000000E+00  0.0000000E+00 -0.1000000E+01
  0.5993126E-01  0.1712224E+00 -0.5993126E-01   0.0000000E+00  0.0000000E+00 -0.1000000E+01
  0.5993126E-01 -0.1712224E+00 -0.5993126E-01   0.0000000E+00  0.0000000E+00 -0.1000000E+01
 -0.5993126E-01 -0.1712224E+00 -0.5993126E-01   0.0000000E+00  0.0000000E+00 -0.1000000E+01
           4
  0.5993126E-01 -0.1712224E+00  0.5993126E-01   0.3473972E-17 -0.0000000E+00  0.1000000E+01
  0.5993126E-01  0.1712224E+00  0.5993126E-01   0.3473972E-17 -0.0000000E+00  0.1000000E+01
 -0.5993126E-01  0.1712224E+00  0.5993126E-01   0.3473972E-17 -0.0000000E+00  0.1000000E+01
 -0.5993126E-01 -0.1712224E+00  0.5993126E-01   0.3473972E-17 -0.0000000E+00  0.1000000E+01
           4
 -0.5993126E-01  0.1712224E+00  0.5993126E-01   0.0000000E+00  0.1000000E+01  0.0000000E+00
  0.5993126E-01  0.1712224E+00  0.5993126E-01   0.0000000E+00  0.1000000E+01  0.0000000E+00
  0.5993126E-01  0.1712224E+00 -0.5993126E-01   0.0000000E+00  0.1000000E+01  0.0000000E+00
 -0.5993126E-01  0.1712224E+00 -0.5993126E-01   0.0000000E+00  0.1000000E+01  0.0000000E+00
           4
  0.5993126E-01 -0.1712224E+00  0.5993126E-01   0.1000000E+01 -0.0000000E+00 -0.0000000E+00
  0.5993126E-01 -0.1712224E+00 -0.5993126E-01   0.1000000E+01 -0.0000000E+00 -0.0000000E+00
  0.5993126E-01  0.1712224E+00 -0.5993126E-01   0.1000000E+01 -0.0000000E+00 -0.0000000E+00
  0.5993126E-01  0.1712224E+00  0.5993126E-01   0.1000000E+01 -0.0000000E+00 -0.0000000E+00
 BRILLOUIN-ZONE-CONVCELL_END
 ATOMS
    5    1.6685782900    0.0000000000    4.1714457260
    5    3.3371565810    0.0000000000    4.1714457260
    5    5.0057348710    0.0000000000    4.1714457260
    5    6.6743131610    0.0000000000    4.1714457260
    5    0.8342891450    1.4600894330    4.1714457260
    5    2.5028674350    1.4600894330    4.1714457260
    5    5.8400240160    1.4600894330    4.1714457260
    5    7.5086023070    1.4600894330    4.1714457260
    5    1.6685782900    2.9201788660    4.1714457260
    5    3.3371565810    2.9201788660    4.1714457260
    5    5.0057348710    2.9201788660    4.1714457260
    5    6.6743131610    2.9201788660    4.1714457260
 FRAMES
1      0.0000000000    0.0000000000    0.0000000000      8.3428914520    0.0000000000    0.0000000000
1      0.0000000000    0.0000000000    0.0000000000      0.0000000000    2.9201788660    0.0000000000
1      0.0000000000    0.0000000000    0.0000000000      0.0000000000    0.0000000000    8.3428914520
1      0.0000000000    0.0000000000    8.3428914520      8.3428914520    0.0000000000    8.3428914520
1      0.0000000000    0.0000000000    8.3428914520      0.0000000000    2.9201788660    8.3428914520
1      0.0000000000    2.9201788660    0.0000000000      8.3428914520    2.9201788660    0.0000000000
1      0.0000000000    2.9201788660    0.0000000000      0.0000000000    2.9201788660    8.3428914520
1      0.0000000000    2.9201788660    8.3428914520      8.3428914520    2.9201788660    8.3428914520
1      8.3428914520    0.0000000000    0.0000000000      8.3428914520    2.9201788660    0.0000000000
1      8.3428914520    0.0000000000    0.0000000000      8.3428914520    0.0000000000    8.3428914520
1      8.3428914520    0.0000000000    8.3428914520      8.3428914520    2.9201788660    8.3428914520
1      8.3428914520    2.9201788660    0.0000000000      8.3428914520    2.9201788660    8.3428914520
